src/test/resources/com/farao_community/farao/flow_decomposition/NETWORK_HLBP.xiidm
<?xml version="1.0" encoding="UTF-8"?>
<iidm:network xmlns:iidm="http://www.powsybl.org/schema/iidm/1_7" xmlns:ea="http://www.itesla_project.eu/schema/iidm/ext/entsoe_area/1_0" xmlns:mxn="http://www.powsybl.org/schema/iidm/ext/merged_xnode/1_1" xmlns:slt="http://www.powsybl.org/schema/iidm/ext/slack_terminal/1_4" id="NETWORK_HLBP" caseDate="2022-06-22T17:11:55.372+02:00" forecastDistance="0" sourceFormat="UCTE" minimumValidationLevel="STEADY_STATE_HYPOTHESIS">
    <iidm:substation id="A1    " country="AL">
        <iidm:voltageLevel id="A1    1" nominalV="380.0" topologyKind="BUS_BREAKER">
            <iidm:busBreakerTopology>
                <iidm:bus id="A1    11">
                    <iidm:property name="geographicalName" value=""/>
                </iidm:bus>
            </iidm:busBreakerTopology>
            <iidm:generator id="A1    11_generator" energySource="OTHER" minP="-1000.0" maxP="1000.0" voltageRegulatorOn="true" targetP="600.0" targetV="400.0" targetQ="290.59" bus="A1    11" connectableBus="A1    11">
                <iidm:minMaxReactiveLimits minQ="-1000.0" maxQ="1000.0"/>
            </iidm:generator>
        </iidm:voltageLevel>
    </iidm:substation>
    <iidm:substation id="A2    " country="AL">
        <iidm:voltageLevel id="A2    1" nominalV="380.0" topologyKind="BUS_BREAKER">
            <iidm:busBreakerTopology>
                <iidm:bus id="A2    11">
                    <iidm:property name="geographicalName" value=""/>
                </iidm:bus>
            </iidm:busBreakerTopology>
            <iidm:generator id="A2    11_generator" energySource="OTHER" minP="-1000.0" maxP="1000.0" voltageRegulatorOn="true" targetP="0.0" targetV="400.0" targetQ="0.0" bus="A2    11" connectableBus="A2    11">
                <iidm:minMaxReactiveLimits minQ="-1000.0" maxQ="1000.0"/>
            </iidm:generator>
        </iidm:voltageLevel>
    </iidm:substation>
    <iidm:substation id="B1    " country="BE">
        <iidm:voltageLevel id="B1    1" nominalV="380.0" topologyKind="BUS_BREAKER">
            <iidm:busBreakerTopology>
                <iidm:bus id="B1    11">
                    <iidm:property name="geographicalName" value=""/>
                </iidm:bus>
            </iidm:busBreakerTopology>
            <iidm:generator id="B1    11_generator" energySource="OTHER" minP="-1000.0" maxP="1000.0" voltageRegulatorOn="true" targetP="900.0" targetV="400.0" targetQ="435.89" bus="B1    11" connectableBus="B1    11">
                <iidm:minMaxReactiveLimits minQ="-1000.0" maxQ="1000.0"/>
            </iidm:generator>
        </iidm:voltageLevel>
    </iidm:substation>
    <iidm:substation id="B2    " country="BE">
        <iidm:voltageLevel id="B2    1" nominalV="380.0" topologyKind="BUS_BREAKER">
            <iidm:busBreakerTopology>
                <iidm:bus id="B2    11">
                    <iidm:property name="geographicalName" value=""/>
                </iidm:bus>
            </iidm:busBreakerTopology>
            <iidm:generator id="B2    11_generator" energySource="OTHER" minP="-1000.0" maxP="1000.0" voltageRegulatorOn="true" targetP="0.0" targetV="400.0" targetQ="0.0" bus="B2    11" connectableBus="B2    11">
                <iidm:minMaxReactiveLimits minQ="-1000.0" maxQ="1000.0"/>
            </iidm:generator>
            <iidm:load id="B2    11_load" loadType="UNDEFINED" p0="0.0" q0="130.0" bus="B2    11" connectableBus="B2    11"/>
        </iidm:voltageLevel>
    </iidm:substation>
    <iidm:substation id="B3    " country="BE">
        <iidm:voltageLevel id="B3    1" nominalV="380.0" topologyKind="BUS_BREAKER">
            <iidm:busBreakerTopology>
                <iidm:bus id="B3    11">
                    <iidm:property name="geographicalName" value=""/>
                </iidm:bus>
            </iidm:busBreakerTopology>
            <iidm:generator id="B3    11_generator" energySource="OTHER" minP="-1000.0" maxP="1000.0" voltageRegulatorOn="true" targetP="600.0" targetV="400.0" targetQ="290.59" bus="B3    11" connectableBus="B3    11">
                <iidm:minMaxReactiveLimits minQ="-1000.0" maxQ="1000.0"/>
            </iidm:generator>
        </iidm:voltageLevel>
    </iidm:substation>
    <iidm:substation id="B4    " country="BE">
        <iidm:voltageLevel id="B4    1" nominalV="380.0" topologyKind="BUS_BREAKER">
            <iidm:busBreakerTopology>
                <iidm:bus id="B4    11">
                    <iidm:property name="geographicalName" value=""/>
                </iidm:bus>
            </iidm:busBreakerTopology>
            <iidm:generator id="B4    11_generator" energySource="OTHER" minP="-1000.0" maxP="1000.0" voltageRegulatorOn="true" targetP="0.0" targetV="400.0" targetQ="0.0" bus="B4    11" connectableBus="B4    11">
                <iidm:minMaxReactiveLimits minQ="-1000.0" maxQ="1000.0"/>
            </iidm:generator>
        </iidm:voltageLevel>
    </iidm:substation>
    <iidm:substation id="B5    " country="BE">
        <iidm:voltageLevel id="B5    1" nominalV="380.0" topologyKind="BUS_BREAKER">
            <iidm:busBreakerTopology>
                <iidm:bus id="B5    11">
                    <iidm:property name="geographicalName" value=""/>
                </iidm:bus>
            </iidm:busBreakerTopology>
            <iidm:load id="B5    11_load" loadType="UNDEFINED" p0="600.0" q0="290.59" bus="B5    11" connectableBus="B5    11"/>
        </iidm:voltageLevel>
    </iidm:substation>
    <iidm:substation id="C1    " country="CZ">
        <iidm:voltageLevel id="C1    1" nominalV="380.0" topologyKind="BUS_BREAKER">
            <iidm:busBreakerTopology>
                <iidm:bus id="C1    11">
                    <iidm:property name="geographicalName" value=""/>
                </iidm:bus>
                <iidm:bus id="C3    11">
                    <iidm:property name="geographicalName" value=""/>
                </iidm:bus>
            </iidm:busBreakerTopology>
            <iidm:generator id="C1    11_generator" energySource="OTHER" minP="-1000.0" maxP="1000.0" voltageRegulatorOn="true" targetP="0.0" targetV="400.0" targetQ="0.0" bus="C1    11" connectableBus="C1    11">
                <iidm:minMaxReactiveLimits minQ="-1000.0" maxQ="1000.0"/>
            </iidm:generator>
            <iidm:load id="C3    11_load" loadType="UNDEFINED" p0="600.0" q0="290.59" bus="C3    11" connectableBus="C3    11"/>
        </iidm:voltageLevel>
        <iidm:twoWindingsTransformer id="C1    11 C3    11 1" r="0.0" x="64.0" g="0.0" b="-1.5599999999999997E-8" ratedU1="400.0" ratedU2="400.0" bus1="C3    11" connectableBus1="C3    11" voltageLevelId1="C1    1" bus2="C1    11" connectableBus2="C1    11" voltageLevelId2="C1    1">
            <iidm:property name="nomimalPower" value="250.0"/>
            <iidm:property name="elementName" value="PST"/>
            <iidm:phaseTapChanger lowTapPosition="-33" tapPosition="-3" regulationMode="FIXED_TAP">
                <iidm:step r="0.0" x="0.0" g="0.0" b="0.0" rho="1.0" alpha="19.62114175429242"/>
                <iidm:step r="0.0" x="0.0" g="0.0" b="0.0" rho="1.0" alpha="19.037606900031665"/>
                <iidm:step r="0.0" x="0.0" g="0.0" b="0.0" rho="1.0" alpha="18.45307381541813"/>
                <iidm:step r="0.0" x="0.0" g="0.0" b="0.0" rho="1.0" alpha="17.867570432927984"/>
                <iidm:step r="0.0" x="0.0" g="0.0" b="0.0" rho="1.0" alpha="17.281124980478733"/>
                <iidm:step r="0.0" x="0.0" g="0.0" b="0.0" rho="1.0" alpha="16.693765974267574"/>
                <iidm:step r="0.0" x="0.0" g="0.0" b="0.0" rho="1.0" alpha="16.105522211396845"/>
                <iidm:step r="0.0" x="0.0" g="0.0" b="0.0" rho="1.0" alpha="15.516422762290567"/>
                <iidm:step r="0.0" x="0.0" g="0.0" b="0.0" rho="1.0" alpha="14.926496962906215"/>
                <iidm:step r="0.0" x="0.0" g="0.0" b="0.0" rho="1.0" alpha="14.335774406746259"/>
                <iidm:step r="0.0" x="0.0" g="0.0" b="0.0" rho="1.0" alpha="13.744284936674212"/>
                <iidm:step r="0.0" x="0.0" g="0.0" b="0.0" rho="1.0" alpha="13.152058636540204"/>
                <iidm:step r="0.0" x="0.0" g="0.0" b="0.0" rho="1.0" alpha="12.559125822621402"/>
                <iidm:step r="0.0" x="0.0" g="0.0" b="0.0" rho="1.0" alpha="11.965517034882797"/>
                <iidm:step r="0.0" x="0.0" g="0.0" b="0.0" rho="1.0" alpha="11.371263028064211"/>
                <iidm:step r="0.0" x="0.0" g="0.0" b="0.0" rho="1.0" alpha="10.776394762599512"/>
                <iidm:step r="0.0" x="0.0" g="0.0" b="0.0" rho="1.0" alpha="10.180943395374385"/>
                <iidm:step r="0.0" x="0.0" g="0.0" b="0.0" rho="1.0" alpha="9.58494027032917"/>
                <iidm:step r="0.0" x="0.0" g="0.0" b="0.0" rho="1.0" alpha="8.988416908913518"/>
                <iidm:step r="0.0" x="0.0" g="0.0" b="0.0" rho="1.0" alpha="8.39140500039981"/>
                <iidm:step r="0.0" x="0.0" g="0.0" b="0.0" rho="1.0" alpha="7.793936392062569"/>
                <iidm:step r="0.0" x="0.0" g="0.0" b="0.0" rho="1.0" alpha="7.196043079231168"/>
                <iidm:step r="0.0" x="0.0" g="0.0" b="0.0" rho="1.0" alpha="6.597757195223464"/>
                <iidm:step r="0.0" x="0.0" g="0.0" b="0.0" rho="1.0" alpha="5.99911100116804"/>
                <iidm:step r="0.0" x="0.0" g="0.0" b="0.0" rho="1.0" alpha="5.400136875722998"/>
                <iidm:step r="0.0" x="0.0" g="0.0" b="0.0" rho="1.0" alpha="4.800867304699343"/>
                <iidm:step r="0.0" x="0.0" g="0.0" b="0.0" rho="1.0" alpha="4.201334870597174"/>
                <iidm:step r="0.0" x="0.0" g="0.0" b="0.0" rho="1.0" alpha="3.6015722420630065"/>
                <iidm:step r="0.0" x="0.0" g="0.0" b="0.0" rho="1.0" alpha="3.0016121632767003"/>
                <iidm:step r="0.0" x="0.0" g="0.0" b="0.0" rho="1.0" alpha="2.4014874432765376"/>
                <iidm:step r="0.0" x="0.0" g="0.0" b="0.0" rho="1.0" alpha="1.80123094523112"/>
                <iidm:step r="0.0" x="0.0" g="0.0" b="0.0" rho="1.0" alpha="1.2008755756668181"/>
                <iidm:step r="0.0" x="0.0" g="0.0" b="0.0" rho="1.0" alpha="0.6004542736595868"/>
                <iidm:step r="0.0" x="0.0" g="0.0" b="0.0" rho="1.0" alpha="-0.0"/>
                <iidm:step r="0.0" x="0.0" g="0.0" b="0.0" rho="1.0" alpha="-0.6004542736595868"/>
                <iidm:step r="0.0" x="0.0" g="0.0" b="0.0" rho="1.0" alpha="-1.2008755756668181"/>
                <iidm:step r="0.0" x="0.0" g="0.0" b="0.0" rho="1.0" alpha="-1.80123094523112"/>
                <iidm:step r="0.0" x="0.0" g="0.0" b="0.0" rho="1.0" alpha="-2.4014874432765376"/>
                <iidm:step r="0.0" x="0.0" g="0.0" b="0.0" rho="1.0" alpha="-3.0016121632767003"/>
                <iidm:step r="0.0" x="0.0" g="0.0" b="0.0" rho="1.0" alpha="-3.6015722420630065"/>
                <iidm:step r="0.0" x="0.0" g="0.0" b="0.0" rho="1.0" alpha="-4.201334870597174"/>
                <iidm:step r="0.0" x="0.0" g="0.0" b="0.0" rho="1.0" alpha="-4.800867304699343"/>
                <iidm:step r="0.0" x="0.0" g="0.0" b="0.0" rho="1.0" alpha="-5.400136875722998"/>
                <iidm:step r="0.0" x="0.0" g="0.0" b="0.0" rho="1.0" alpha="-5.99911100116804"/>
                <iidm:step r="0.0" x="0.0" g="0.0" b="0.0" rho="1.0" alpha="-6.597757195223464"/>
                <iidm:step r="0.0" x="0.0" g="0.0" b="0.0" rho="1.0" alpha="-7.196043079231168"/>
                <iidm:step r="0.0" x="0.0" g="0.0" b="0.0" rho="1.0" alpha="-7.793936392062569"/>
                <iidm:step r="0.0" x="0.0" g="0.0" b="0.0" rho="1.0" alpha="-8.39140500039981"/>
                <iidm:step r="0.0" x="0.0" g="0.0" b="0.0" rho="1.0" alpha="-8.988416908913518"/>
                <iidm:step r="0.0" x="0.0" g="0.0" b="0.0" rho="1.0" alpha="-9.58494027032917"/>
                <iidm:step r="0.0" x="0.0" g="0.0" b="0.0" rho="1.0" alpha="-10.180943395374385"/>
                <iidm:step r="0.0" x="0.0" g="0.0" b="0.0" rho="1.0" alpha="-10.776394762599512"/>
                <iidm:step r="0.0" x="0.0" g="0.0" b="0.0" rho="1.0" alpha="-11.371263028064211"/>
                <iidm:step r="0.0" x="0.0" g="0.0" b="0.0" rho="1.0" alpha="-11.965517034882797"/>
                <iidm:step r="0.0" x="0.0" g="0.0" b="0.0" rho="1.0" alpha="-12.559125822621402"/>
                <iidm:step r="0.0" x="0.0" g="0.0" b="0.0" rho="1.0" alpha="-13.152058636540204"/>
                <iidm:step r="0.0" x="0.0" g="0.0" b="0.0" rho="1.0" alpha="-13.744284936674212"/>
                <iidm:step r="0.0" x="0.0" g="0.0" b="0.0" rho="1.0" alpha="-14.335774406746259"/>
                <iidm:step r="0.0" x="0.0" g="0.0" b="0.0" rho="1.0" alpha="-14.926496962906215"/>
                <iidm:step r="0.0" x="0.0" g="0.0" b="0.0" rho="1.0" alpha="-15.516422762290567"/>
                <iidm:step r="0.0" x="0.0" g="0.0" b="0.0" rho="1.0" alpha="-16.105522211396845"/>
                <iidm:step r="0.0" x="0.0" g="0.0" b="0.0" rho="1.0" alpha="-16.693765974267574"/>
                <iidm:step r="0.0" x="0.0" g="0.0" b="0.0" rho="1.0" alpha="-17.281124980478733"/>
                <iidm:step r="0.0" x="0.0" g="0.0" b="0.0" rho="1.0" alpha="-17.867570432927984"/>
                <iidm:step r="0.0" x="0.0" g="0.0" b="0.0" rho="1.0" alpha="-18.45307381541813"/>
                <iidm:step r="0.0" x="0.0" g="0.0" b="0.0" rho="1.0" alpha="-19.037606900031665"/>
                <iidm:step r="0.0" x="0.0" g="0.0" b="0.0" rho="1.0" alpha="-19.62114175429242"/>
            </iidm:phaseTapChanger>
            <iidm:currentLimits2 permanentLimit="2000.0"/>
        </iidm:twoWindingsTransformer>
    </iidm:substation>
    <iidm:substation id="C2    " country="CZ">
        <iidm:voltageLevel id="C2    1" nominalV="380.0" topologyKind="BUS_BREAKER">
            <iidm:busBreakerTopology>
                <iidm:bus id="C2    11">
                    <iidm:property name="geographicalName" value=""/>
                </iidm:bus>
            </iidm:busBreakerTopology>
            <iidm:load id="C2    11_load" loadType="UNDEFINED" p0="300.0" q0="-234.7" bus="C2    11" connectableBus="C2    11"/>
        </iidm:voltageLevel>
    </iidm:substation>
    <iidm:substation id="C4    " country="CZ">
        <iidm:voltageLevel id="C4    1" nominalV="380.0" topologyKind="BUS_BREAKER">
            <iidm:busBreakerTopology>
                <iidm:bus id="C4    11">
                    <iidm:property name="geographicalName" value=""/>
                </iidm:bus>
            </iidm:busBreakerTopology>
            <iidm:generator id="C4    11_generator" energySource="OTHER" minP="-1000.0" maxP="1000.0" voltageRegulatorOn="true" targetP="400.0" targetV="400.0" targetQ="193.73" bus="C4    11" connectableBus="C4    11">
                <iidm:minMaxReactiveLimits minQ="-1000.0" maxQ="1000.0"/>
            </iidm:generator>
        </iidm:voltageLevel>
    </iidm:substation>
    <iidm:substation id="D1    " country="DE">
        <iidm:voltageLevel id="D1    1" nominalV="380.0" topologyKind="BUS_BREAKER">
            <iidm:busBreakerTopology>
                <iidm:bus id="D1    11">
                    <iidm:property name="geographicalName" value=""/>
                </iidm:bus>
            </iidm:busBreakerTopology>
            <iidm:load id="D1    11_load" loadType="UNDEFINED" p0="300.0" q0="145.3" bus="D1    11" connectableBus="D1    11"/>
        </iidm:voltageLevel>
    </iidm:substation>
    <iidm:substation id="D2    " country="DE">
        <iidm:voltageLevel id="D2    1" nominalV="380.0" topologyKind="BUS_BREAKER">
            <iidm:busBreakerTopology>
                <iidm:bus id="D2    11">
                    <iidm:property name="geographicalName" value=""/>
                </iidm:bus>
            </iidm:busBreakerTopology>
            <iidm:load id="D2    11_load" loadType="UNDEFINED" p0="900.0" q0="435.89" bus="D2    11" connectableBus="D2    11"/>
        </iidm:voltageLevel>
    </iidm:substation>
    <iidm:substation id="D3    " country="DE">
        <iidm:voltageLevel id="D3    1" nominalV="380.0" topologyKind="BUS_BREAKER">
            <iidm:busBreakerTopology>
                <iidm:bus id="D3    11">
                    <iidm:property name="geographicalName" value=""/>
                </iidm:bus>
            </iidm:busBreakerTopology>
            <iidm:generator id="D3    11_generator" energySource="OTHER" minP="-1000.0" maxP="1000.0" voltageRegulatorOn="true" targetP="100.0" targetV="400.0" targetQ="-48.432" bus="D3    11" connectableBus="D3    11">
                <iidm:minMaxReactiveLimits minQ="-1000.0" maxQ="1000.0"/>
            </iidm:generator>
        </iidm:voltageLevel>
    </iidm:substation>
    <iidm:substation id="N1    " country="NL">
        <iidm:voltageLevel id="N1    1" nominalV="380.0" topologyKind="BUS_BREAKER">
            <iidm:busBreakerTopology>
                <iidm:bus id="N1    11">
                    <iidm:property name="geographicalName" value=""/>
                </iidm:bus>
            </iidm:busBreakerTopology>
            <iidm:generator id="N1    11_generator" energySource="OTHER" minP="-1000.0" maxP="1000.0" voltageRegulatorOn="true" targetP="200.0" targetV="400.0" targetQ="96.864" bus="N1    11" connectableBus="N1    11">
                <iidm:minMaxReactiveLimits minQ="-1000.0" maxQ="1000.0"/>
            </iidm:generator>
        </iidm:voltageLevel>
    </iidm:substation>
    <iidm:substation id="N2    " country="NL">
        <iidm:voltageLevel id="N2    1" nominalV="380.0" topologyKind="BUS_BREAKER">
            <iidm:busBreakerTopology>
                <iidm:bus id="N2    11">
                    <iidm:property name="geographicalName" value=""/>
                </iidm:bus>
            </iidm:busBreakerTopology>
            <iidm:load id="N2    11_load" loadType="UNDEFINED" p0="100.0" q0="48.432" bus="N2    11" connectableBus="N2    11"/>
        </iidm:voltageLevel>
    </iidm:substation>
    <iidm:substation id="V1    " country="BG">
        <iidm:voltageLevel id="V1    1" nominalV="380.0" topologyKind="BUS_BREAKER">
            <iidm:busBreakerTopology>
                <iidm:bus id="V1    11">
                    <iidm:property name="geographicalName" value=""/>
                </iidm:bus>
            </iidm:busBreakerTopology>
            <iidm:generator id="V1    11_generator" energySource="OTHER" minP="-600.0" maxP="-600.0" voltageRegulatorOn="true" targetP="-600.0" targetV="400.0" targetQ="-290.59" bus="V1    11" connectableBus="V1    11">
                <iidm:minMaxReactiveLimits minQ="-290.59" maxQ="-290.59"/>
            </iidm:generator>
        </iidm:voltageLevel>
    </iidm:substation>
    <iidm:substation id="W2    " country="BA">
        <iidm:voltageLevel id="W2    1" nominalV="380.0" topologyKind="BUS_BREAKER">
            <iidm:busBreakerTopology>
                <iidm:bus id="W2    11">
                    <iidm:property name="geographicalName" value=""/>
                </iidm:bus>
            </iidm:busBreakerTopology>
            <iidm:generator id="W2    11_generator" energySource="OTHER" minP="600.0" maxP="600.0" voltageRegulatorOn="true" targetP="600.0" targetV="400.0" targetQ="290.59" bus="W2    11" connectableBus="W2    11">
                <iidm:minMaxReactiveLimits minQ="290.59" maxQ="290.59"/>
            </iidm:generator>
        </iidm:voltageLevel>
    </iidm:substation>
    <iidm:line id="A1    11 A2    11 1" r="1.5" x="17.5" g1="0.0" b1="-2.835E-8" g2="0.0" b2="-2.835E-8" bus1="A1    11" connectableBus1="A1    11" voltageLevelId1="A1    1" bus2="A2    11" connectableBus2="A2    11" voltageLevelId2="A2    1">
        <iidm:property name="elementName" value="LINE"/>
        <iidm:currentLimits1 permanentLimit="480.0"/>
        <iidm:currentLimits2 permanentLimit="480.0"/>
    </iidm:line>
    <iidm:line id="B1    11 B2    11 1" r="1.5" x="17.5" g1="0.0" b1="-2.835E-8" g2="0.0" b2="-2.835E-8" bus1="B1    11" connectableBus1="B1    11" voltageLevelId1="B1    1" bus2="B2    11" connectableBus2="B2    11" voltageLevelId2="B2    1">
        <iidm:property name="elementName" value="LINE"/>
        <iidm:currentLimits1 permanentLimit="480.0"/>
        <iidm:currentLimits2 permanentLimit="480.0"/>
    </iidm:line>
    <iidm:line id="B1    11 B4    11 1" r="1.5" x="17.5" g1="0.0" b1="-2.835E-8" g2="0.0" b2="-2.835E-8" bus1="B1    11" connectableBus1="B1    11" voltageLevelId1="B1    1" bus2="B4    11" connectableBus2="B4    11" voltageLevelId2="B4    1">
        <iidm:property name="elementName" value="LINE"/>
        <iidm:currentLimits1 permanentLimit="480.0"/>
        <iidm:currentLimits2 permanentLimit="480.0"/>
    </iidm:line>
    <iidm:line id="B2    11 B3    11 1" r="1.5" x="17.5" g1="0.0" b1="-2.835E-8" g2="0.0" b2="-2.835E-8" bus1="B2    11" connectableBus1="B2    11" voltageLevelId1="B2    1" bus2="B3    11" connectableBus2="B3    11" voltageLevelId2="B3    1">
        <iidm:property name="elementName" value="LINE"/>
        <iidm:currentLimits1 permanentLimit="480.0"/>
        <iidm:currentLimits2 permanentLimit="480.0"/>
    </iidm:line>
    <iidm:line id="B3    11 B5    11 1" r="1.5" x="17.5" g1="0.0" b1="-2.835E-8" g2="0.0" b2="-2.835E-8" bus1="B3    11" connectableBus1="B3    11" voltageLevelId1="B3    1" bus2="B5    11" connectableBus2="B5    11" voltageLevelId2="B5    1">
        <iidm:property name="elementName" value="LINE"/>
        <iidm:currentLimits1 permanentLimit="480.0"/>
        <iidm:currentLimits2 permanentLimit="480.0"/>
    </iidm:line>
    <iidm:line id="B4    11 B5    11 1" r="1.5" x="17.5" g1="0.0" b1="-2.835E-8" g2="0.0" b2="-2.835E-8" bus1="B4    11" connectableBus1="B4    11" voltageLevelId1="B4    1" bus2="B5    11" connectableBus2="B5    11" voltageLevelId2="B5    1">
        <iidm:property name="elementName" value="LINE"/>
        <iidm:currentLimits1 permanentLimit="480.0"/>
        <iidm:currentLimits2 permanentLimit="480.0"/>
    </iidm:line>
    <iidm:line id="C2    11 C3    11 1" r="1.5" x="17.5" g1="0.0" b1="-2.835E-8" g2="0.0" b2="-2.835E-8" bus1="C2    11" connectableBus1="C2    11" voltageLevelId1="C2    1" bus2="C3    11" connectableBus2="C3    11" voltageLevelId2="C1    1">
        <iidm:property name="elementName" value="LINE"/>
        <iidm:currentLimits1 permanentLimit="480.0"/>
        <iidm:currentLimits2 permanentLimit="480.0"/>
    </iidm:line>
    <iidm:line id="C2    11 C4    11 1" r="1.5" x="17.5" g1="0.0" b1="-2.835E-8" g2="0.0" b2="-2.835E-8" bus1="C2    11" connectableBus1="C2    11" voltageLevelId1="C2    1" bus2="C4    11" connectableBus2="C4    11" voltageLevelId2="C4    1">
        <iidm:property name="elementName" value="LINE"/>
        <iidm:currentLimits1 permanentLimit="480.0"/>
        <iidm:currentLimits2 permanentLimit="480.0"/>
    </iidm:line>
    <iidm:line id="D1    11 D2    11 1" r="1.5" x="17.5" g1="0.0" b1="-2.835E-8" g2="0.0" b2="-2.835E-8" bus1="D1    11" connectableBus1="D1    11" voltageLevelId1="D1    1" bus2="D2    11" connectableBus2="D2    11" voltageLevelId2="D2    1">
        <iidm:property name="elementName" value="LINE"/>
        <iidm:currentLimits1 permanentLimit="480.0"/>
        <iidm:currentLimits2 permanentLimit="480.0"/>
    </iidm:line>
    <iidm:line id="D1    11 D3    11 1" r="1.5" x="17.5" g1="0.0" b1="-2.835E-8" g2="0.0" b2="-2.835E-8" bus1="D1    11" connectableBus1="D1    11" voltageLevelId1="D1    1" bus2="D3    11" connectableBus2="D3    11" voltageLevelId2="D3    1">
        <iidm:property name="elementName" value="LINE"/>
        <iidm:currentLimits1 permanentLimit="480.0"/>
        <iidm:currentLimits2 permanentLimit="480.0"/>
    </iidm:line>
    <iidm:line id="N1    11 N2    11 1" r="1.5" x="17.5" g1="0.0" b1="-2.835E-8" g2="0.0" b2="-2.835E-8" bus1="N1    11" connectableBus1="N1    11" voltageLevelId1="N1    1" bus2="N2    11" connectableBus2="N2    11" voltageLevelId2="N2    1">
        <iidm:property name="elementName" value="LINE"/>
        <iidm:currentLimits1 permanentLimit="480.0"/>
        <iidm:currentLimits2 permanentLimit="480.0"/>
    </iidm:line>
    <iidm:line id="D2    11 D3    11 1" r="1.5" x="17.5" g1="0.0" b1="-2.835E-8" g2="0.0" b2="-2.835E-8" bus1="D2    11" connectableBus1="D2    11" voltageLevelId1="D2    1" bus2="D3    11" connectableBus2="D3    11" voltageLevelId2="D3    1">
        <iidm:property name="elementName" value="LINE"/>
        <iidm:currentLimits1 permanentLimit="480.0"/>
        <iidm:currentLimits2 permanentLimit="480.0"/>
    </iidm:line>
    <iidm:line id="A2    11 V1    11 1" r="0.0" x="0.001" g1="0.0" b1="-4.7619E-4" g2="0.0" b2="-4.7619E-4" bus1="A2    11" connectableBus1="A2    11" voltageLevelId1="A2    1" bus2="V1    11" connectableBus2="V1    11" voltageLevelId2="V1    1">
        <iidm:property name="elementName" value="LINE"/>
        <iidm:currentLimits1 permanentLimit="480.0"/>
        <iidm:currentLimits2 permanentLimit="480.0"/>
    </iidm:line>
    <iidm:line id="W2    11 C2    11 1" r="0.0" x="0.001" g1="0.0" b1="-4.7619E-4" g2="0.0" b2="-4.7619E-4" bus1="W2    11" connectableBus1="W2    11" voltageLevelId1="W2    1" bus2="C2    11" connectableBus2="C2    11" voltageLevelId2="C2    1">
        <iidm:property name="elementName" value="LINE"/>
        <iidm:currentLimits1 permanentLimit="480.0"/>
        <iidm:currentLimits2 permanentLimit="480.0"/>
    </iidm:line>
    <iidm:tieLine id="B5    11 X6    11 1 + X6    11 N1    11 1" ucteXnodeCode="X6    11" bus1="B5    11" connectableBus1="B5    11" voltageLevelId1="B5    1" bus2="N1    11" connectableBus2="N1    11" voltageLevelId2="N1    1" id_1="B5    11 X6    11 1" r_1="0.75" x_1="8.75" g1_1="0.0" b1_1="-1.135E-7" g2_1="0.0" b2_1="0.0" id_2="X6    11 N1    11 1" r_2="0.75" x_2="8.75" g1_2="0.0" b1_2="0.0" g2_2="0.0" b2_2="-1.135E-7">
        <iidm:property name="elementName_2" value="LINE"/>
        <iidm:property name="elementName_1" value="LINE"/>
        <iidm:property name="status_XNode" value="REAL"/>
        <iidm:property name="geographicalName" value=""/>
        <iidm:currentLimits1 permanentLimit="480.0"/>
        <iidm:currentLimits2 permanentLimit="480.0"/>
    </iidm:tieLine>
    <iidm:tieLine id="B4    11 X3    11 1 + X3    11 D1    11 1" ucteXnodeCode="X3    11" bus1="B4    11" connectableBus1="B4    11" voltageLevelId1="B4    1" bus2="D1    11" connectableBus2="D1    11" voltageLevelId2="D1    1" id_1="B4    11 X3    11 1" r_1="0.75" x_1="8.75" g1_1="0.0" b1_1="-1.135E-7" g2_1="0.0" b2_1="0.0" id_2="X3    11 D1    11 1" r_2="0.75" x_2="8.75" g1_2="0.0" b1_2="0.0" g2_2="0.0" b2_2="-1.135E-7">
        <iidm:property name="elementName_2" value="LINE"/>
        <iidm:property name="elementName_1" value="LINE"/>
        <iidm:property name="status_XNode" value="REAL"/>
        <iidm:property name="geographicalName" value=""/>
        <iidm:currentLimits1 permanentLimit="480.0"/>
        <iidm:currentLimits2 permanentLimit="480.0"/>
    </iidm:tieLine>
    <iidm:tieLine id="C4    11 X5    11 1 + X5    11 D2    11 1" ucteXnodeCode="X5    11" bus1="C4    11" connectableBus1="C4    11" voltageLevelId1="C4    1" bus2="D2    11" connectableBus2="D2    11" voltageLevelId2="D2    1" id_1="C4    11 X5    11 1" r_1="0.75" x_1="8.75" g1_1="0.0" b1_1="-1.135E-7" g2_1="0.0" b2_1="0.0" id_2="X5    11 D2    11 1" r_2="0.75" x_2="8.75" g1_2="0.0" b1_2="0.0" g2_2="0.0" b2_2="-1.135E-7">
        <iidm:property name="elementName_2" value="LINE"/>
        <iidm:property name="elementName_1" value="LINE"/>
        <iidm:property name="status_XNode" value="REAL"/>
        <iidm:property name="geographicalName" value=""/>
        <iidm:currentLimits1 permanentLimit="480.0"/>
        <iidm:currentLimits2 permanentLimit="480.0"/>
    </iidm:tieLine>
    <iidm:tieLine id="B1    11 X2    11 1 + X2    11 C1    11 1" ucteXnodeCode="X2    11" bus1="B1    11" connectableBus1="B1    11" voltageLevelId1="B1    1" bus2="C1    11" connectableBus2="C1    11" voltageLevelId2="C1    1" id_1="B1    11 X2    11 1" r_1="0.75" x_1="8.75" g1_1="0.0" b1_1="-1.135E-7" g2_1="0.0" b2_1="0.0" id_2="X2    11 C1    11 1" r_2="0.75" x_2="8.75" g1_2="0.0" b1_2="0.0" g2_2="0.0" b2_2="-1.135E-7">
        <iidm:property name="elementName_2" value="LINE"/>
        <iidm:property name="elementName_1" value="LINE"/>
        <iidm:property name="status_XNode" value="REAL"/>
        <iidm:property name="geographicalName" value=""/>
        <iidm:currentLimits1 permanentLimit="480.0"/>
        <iidm:currentLimits2 permanentLimit="480.0"/>
    </iidm:tieLine>
    <iidm:tieLine id="A1    11 X1    11 1 + X1    11 B1    11 1" ucteXnodeCode="X1    11" bus1="A1    11" connectableBus1="A1    11" voltageLevelId1="A1    1" bus2="B1    11" connectableBus2="B1    11" voltageLevelId2="B1    1" id_1="A1    11 X1    11 1" r_1="0.75" x_1="8.75" g1_1="0.0" b1_1="-1.135E-7" g2_1="0.0" b2_1="0.0" id_2="X1    11 B1    11 1" r_2="0.75" x_2="8.75" g1_2="0.0" b1_2="0.0" g2_2="0.0" b2_2="-1.135E-7">
        <iidm:property name="elementName_2" value="LINE"/>
        <iidm:property name="elementName_1" value="LINE"/>
        <iidm:property name="status_XNode" value="REAL"/>
        <iidm:property name="geographicalName" value=""/>
        <iidm:currentLimits1 permanentLimit="480.0"/>
        <iidm:currentLimits2 permanentLimit="480.0"/>
    </iidm:tieLine>
    <iidm:tieLine id="D3    11 X7    11 1 + X7    11 N2    11 1" ucteXnodeCode="X7    11" bus1="D3    11" connectableBus1="D3    11" voltageLevelId1="D3    1" bus2="N2    11" connectableBus2="N2    11" voltageLevelId2="N2    1" id_1="D3    11 X7    11 1" r_1="0.75" x_1="8.75" g1_1="0.0" b1_1="-1.135E-7" g2_1="0.0" b2_1="0.0" id_2="X7    11 N2    11 1" r_2="0.75" x_2="8.75" g1_2="0.0" b1_2="0.0" g2_2="0.0" b2_2="-1.135E-7">
        <iidm:property name="elementName_2" value="LINE"/>
        <iidm:property name="elementName_1" value="LINE"/>
        <iidm:property name="status_XNode" value="REAL"/>
        <iidm:property name="geographicalName" value=""/>
        <iidm:currentLimits1 permanentLimit="480.0"/>
        <iidm:currentLimits2 permanentLimit="480.0"/>
    </iidm:tieLine>
    <iidm:tieLine id="C3    11 X4    11 1 + X4    11 D2    11 1" ucteXnodeCode="X4    11" bus1="C3    11" connectableBus1="C3    11" voltageLevelId1="C1    1" bus2="D2    11" connectableBus2="D2    11" voltageLevelId2="D2    1" id_1="C3    11 X4    11 1" r_1="0.75" x_1="8.75" g1_1="0.0" b1_1="-1.135E-7" g2_1="0.0" b2_1="0.0" id_2="X4    11 D2    11 1" r_2="0.75" x_2="8.75" g1_2="0.0" b1_2="0.0" g2_2="0.0" b2_2="-1.135E-7">
        <iidm:property name="elementName_2" value="LINE"/>
        <iidm:property name="elementName_1" value="LINE"/>
        <iidm:property name="status_XNode" value="REAL"/>
        <iidm:property name="geographicalName" value=""/>
        <iidm:currentLimits1 permanentLimit="480.0"/>
        <iidm:currentLimits2 permanentLimit="480.0"/>
    </iidm:tieLine>
    <iidm:extension id="A1    11 X1    11 1 + X1    11 B1    11 1">
        <mxn:mergedXnode rdp="0.5" xdp="0.5" xnodeP1="0.0" xnodeQ1="0.0" xnodeP2="0.0" xnodeQ2="0.0" code="X1    11" line1Name="A1    11 X1    11 1" line2Name="X1    11 B1    11 1"/>
    </iidm:extension>
    <iidm:extension id="C4    11 X5    11 1 + X5    11 D2    11 1">
        <mxn:mergedXnode rdp="0.5" xdp="0.5" xnodeP1="0.0" xnodeQ1="0.0" xnodeP2="0.0" xnodeQ2="0.0" code="X5    11" line1Name="C4    11 X5    11 1" line2Name="X5    11 D2    11 1"/>
    </iidm:extension>
    <iidm:extension id="D1    ">
        <ea:entsoeArea>D1</ea:entsoeArea>
    </iidm:extension>
    <iidm:extension id="B4    11 X3    11 1 + X3    11 D1    11 1">
        <mxn:mergedXnode rdp="0.5" xdp="0.5" xnodeP1="0.0" xnodeQ1="0.0" xnodeP2="0.0" xnodeQ2="0.0" code="X3    11" line1Name="B4    11 X3    11 1" line2Name="X3    11 D1    11 1"/>
    </iidm:extension>
    <iidm:extension id="D3    11 X7    11 1 + X7    11 N2    11 1">
        <mxn:mergedXnode rdp="0.5" xdp="0.5" xnodeP1="0.0" xnodeQ1="0.0" xnodeP2="0.0" xnodeQ2="0.0" code="X7    11" line1Name="D3    11 X7    11 1" line2Name="X7    11 N2    11 1"/>
    </iidm:extension>
    <iidm:extension id="D2    ">
        <ea:entsoeArea>D2</ea:entsoeArea>
    </iidm:extension>
    <iidm:extension id="A1    1">
        <slt:slackTerminal id="A1    11_generator"/>
    </iidm:extension>
    <iidm:extension id="B5    11 X6    11 1 + X6    11 N1    11 1">
        <mxn:mergedXnode rdp="0.5" xdp="0.5" xnodeP1="0.0" xnodeQ1="0.0" xnodeP2="0.0" xnodeQ2="0.0" code="X6    11" line1Name="B5    11 X6    11 1" line2Name="X6    11 N1    11 1"/>
    </iidm:extension>
    <iidm:extension id="B1    11 X2    11 1 + X2    11 C1    11 1">
        <mxn:mergedXnode rdp="0.5" xdp="0.5" xnodeP1="0.0" xnodeQ1="0.0" xnodeP2="0.0" xnodeQ2="0.0" code="X2    11" line1Name="B1    11 X2    11 1" line2Name="X2    11 C1    11 1"/>
    </iidm:extension>
    <iidm:extension id="C3    11 X4    11 1 + X4    11 D2    11 1">
        <mxn:mergedXnode rdp="0.5" xdp="0.5" xnodeP1="0.0" xnodeQ1="0.0" xnodeP2="0.0" xnodeQ2="0.0" code="X4    11" line1Name="C3    11 X4    11 1" line2Name="X4    11 D2    11 1"/>
    </iidm:extension>
</iidm:network>
